##CIF_1.1

data_sm_global
#Used dictionaries
loop_
_audit_conform_dict_name
_audit_conform_dict_version
_audit_conform_dict_location
cif_core.dic 	2.4.2 	.
cif_pd.dic 		1.0.1 	.
cif_sm.dic 		0.1 	'redaktion.landolt-boernstein(at)springer.com'

#About this content and reference
_sm_credits_copyright
;PAULING FILE Multinaries Edition - 2012. SpringerMaterials Release 2014.
http://www.paulingfile.com
Unique LPF ID Number SD0526530
Project Coordinator: Shuichi Iwata
Section-Editors: Karin Cenzual (Crystal Structures), Hiroaki Okamoto (Phase 
Diagrams), Fritz Hulliger (Physical Properties)
(c) Springer & Material Phases Data System (MPDS), Switzerland & National 
Institute for Materials Science (NIMS), Japan 2014.
(Data generated pre-2002: (c) Springer & MPDS & NIMS; 
post-2001: (c) Springer & MPDS)
All Rights Reserved. Version 2014.06.
;

_audit_creation_method
;This data have been compiled from the crystallographic datasheet for 
"MoS2 rhombohedral (MoS2 3R) Crystal Structure" 
taken from SpringerMaterials (sm_isp_sd_0526530).
;

_publ_section_references
;Wildervanck J.C., Jellinek F.: <i>Preparation and Crystallinity of Molybdenum and Tungsten Sulfides</i>. Zeitschrift fur Anorganische und Allgemeine Chemie <b>328</b> (1964) 309-318.
;

#Phase classification
_sm_phase_labels				'MoS2 3R'
_chemical_name_mineral			'molybdenite 3R'
_sm_chemical_compound_class		'sulfide'
_sm_phase_prototype				'MoS2 '
_sm_pearson_symbol				'hR9'
_symmetry_Int_Tables_number		160
_sm_sample_details
;powder (determination of cell parameters)
;
_sm_measurement_details
;Straumanis film (determination of cell parameters), 
X-rays, Cu K&#x03b1; (determination of cell parameters)
;
_sm_interpretation_details
;cell parameters determined and structure type assigned
;

data_sm_isp_SD0526530-standardized_unitcell
#Cell Parameters
_cell_length_a					3.163
_cell_length_b					3.163
_cell_length_c					18.37
_cell_angle_alpha				90
_cell_angle_beta				90
_cell_angle_gamma				120
_sm_length_ratio_ab				1.000
_sm_length_ratio_bc				0.172
_sm_length_ratio_ca				5.808
_cell_volume 					159.16
_symmetry_space_group_name_H-M	'R3m'
_symmetry_Int_Tables_number		160
_cell_formula_units_Z			3
_sm_cell_transformation
;No transformation from published to standardized cell parameters necessary.
;

#Atom Coordinates
loop_
_atom_site_label
_atom_site_type_symbol
_atom_site_Wyckoff_symbol
_sm_site_symmetry
_atom_site_fract_x
_atom_site_fract_y
_atom_site_fract_z
_atom_site_occupancy
_sm_coordination_number
_sm_atomic_environment_type
S1 'S' .3a .3m 0 0 0 1 ? '?'
S2 'S' .3a .3m 0 0 0.1713 1 ? '?'
Mo1 'Mo' .3a .3m 0 0 0.419 1 ? '?'

_sm_atom_site_transformation
;No transformation from published to standardized cell parameters necessary.
Atom coordinates assigned by editor.
;

data_sm_isp_SD0526530-published_cell
#Cell Parameters
_cell_length_a					3.163
_cell_length_b					3.163
_cell_length_c					18.37
_cell_angle_alpha				90
_cell_angle_beta				90
_cell_angle_gamma				120
_sm_length_ratio_ab				1.000
_sm_length_ratio_bc				0.172
_sm_length_ratio_ca				5.808
_cell_volume 					159.16
_symmetry_space_group_name_H-M	'R3m'
_symmetry_Int_Tables_number		160
_cell_formula_units_Z			3

#Atom Coordinates
loop_
_atom_site_label
_atom_site_type_symbol
_atom_site_Wyckoff_symbol
_sm_site_symmetry
_atom_site_fract_x
_atom_site_fract_y
_atom_site_fract_z
_atom_site_occupancy
_sm_coordination_number
_sm_atomic_environment_type
? ? ? ? ? ? ? ? ? ?

data_sm_isp_SD0526530-niggli_reduced_cell
#Cell Parameters
_cell_length_a					3.163
_cell_length_b					3.163
_cell_length_c					6.3898
_cell_angle_alpha				75.67
_cell_angle_beta				75.67
_cell_angle_gamma				60
_sm_length_ratio_ab				1.000
_sm_length_ratio_bc				0.495
_sm_length_ratio_ca				2.020
_cell_volume 					53.05
_symmetry_space_group_name_H-M	''
_symmetry_Int_Tables_number		?
_cell_formula_units_Z			3

#Atom Coordinates
loop_
_atom_site_label
_atom_site_type_symbol
_atom_site_Wyckoff_symbol
_sm_site_symmetry
_atom_site_fract_x
_atom_site_fract_y
_atom_site_fract_z
_atom_site_occupancy
_sm_coordination_number
_sm_atomic_environment_type
? ? ? ? ? ? ? ? ? ?

